Questionable use of curly braces in "b§acousticoutput 0 0 i=9390.14*i(v_vusensor) laplace={s}"
    Error: undefined symbol in: "[s]"
Circuit: * Z:\home\harvey\Documents\UNI\5th_year\Acoustics\Project\Resources\spicey\InfiniteBaffle.asc

Cone_excursion_mm: Trouble evaluating Laplacian at DC.
.OP point found by inspection.

Date: Sun Mar 18 18:19:34 2018
Total elapsed time: 0.022 seconds.

tnom = 27
temp = 27
method = trap
totiter = 0
traniter = 0
tranpoints = 0
accept = 0
rejected = 0
matrix size = 21
fillins = 36
solver = Normal

