Circuit: * Z:\home\harvey\Documents\UNI\5th_year\Acoustics\Project\Simulation\Initial\BasicSim.asc


Date: Mon Mar 19 18:28:42 2018
Total elapsed time: 0.026 seconds.

tnom = 27
temp = 27
method = trap
totiter = 0
traniter = 0
tranpoints = 0
accept = 0
rejected = 0
matrix size = 3
fillins = 0
solver = Normal

