Circuit: * Z:\home\harvey\Documents\UNI\5th_year\Acoustics\Project\Simulation\Initial\Draft1.asc


Date: Tue Mar 20 13:47:39 2018
Total elapsed time: 0.024 seconds.

tnom = 27
temp = 27
method = trap
totiter = 0
traniter = 0
tranpoints = 0
accept = 0
rejected = 0
matrix size = 11
fillins = 7
solver = Normal

