Circuit: * C:\users\harvey\My Documents\Documents\UNI\5th_year\Acoustics\AcousticsProject\Simulation\Initial\FreeSpace.asc


Date: Sun Mar 25 19:37:10 2018
Total elapsed time: 0.022 seconds.

tnom = 27
temp = 27
method = trap
totiter = 0
traniter = 0
tranpoints = 0
accept = 0
rejected = 0
matrix size = 6
fillins = 0
solver = Normal

