Circuit: * C:\users\harvey\My Documents\Documents\UNI\5th_year\Acoustics\AcousticsProject\Simulation\Initial\FreeSpace.asc


Date: Sun Mar 25 20:07:45 2018
Total elapsed time: 0.024 seconds.

tnom = 27
temp = 27
method = trap
totiter = 0
traniter = 0
tranpoints = 0
accept = 0
rejected = 0
matrix size = 15
fillins = 0
solver = Normal

